validation_cases/use_cases/uc1/check_live3_pglib_opf_case14_ieee.powermodels.json
{
    "ac": true,
    "baseMVA": 100,
    "branch": {
        "1": {
            "angmax": 1.0471975511965976,
            "angmin": -1.0471975511965976,
            "b_fr": 0.026399999999999996,
            "b_to": 0.026399999999999996,
            "br_r": 0.01938,
            "br_status": 1,
            "br_x": 0.05917,
            "f_bus": 1,
            "g_fr": 0.0,
            "g_to": 0.0,
            "index": 1,
            "rate_a": 4.72,
            "rate_b": 0.0,
            "rate_c": 0.0,
            "shift": 0.0,
            "t_bus": 2,
            "tap": 1.0,
            "transformer": false
        },
        "10": {
            "angmax": 1.0471975511965976,
            "angmin": -1.0471975511965976,
            "b_fr": 0.0,
            "b_to": 0.0,
            "br_r": 0.06615,
            "br_status": 1,
            "br_x": 0.13027,
            "f_bus": 6,
            "g_fr": 0.0,
            "g_to": 0.0,
            "index": 10,
            "rate_a": 2.01,
            "rate_b": 0.0,
            "rate_c": 0.0,
            "shift": 0.0,
            "t_bus": 13,
            "tap": 1.0,
            "transformer": false
        },
        "11": {
            "angmax": 1.0471975511965976,
            "angmin": -1.0471975511965976,
            "b_fr": 0.0,
            "b_to": 0.0,
            "br_r": 0.0,
            "br_status": 1,
            "br_x": 0.17615,
            "f_bus": 7,
            "g_fr": 0.0,
            "g_to": 0.0,
            "index": 11,
            "rate_a": 1.67,
            "rate_b": 0.0,
            "rate_c": 0.0,
            "shift": 0.0,
            "t_bus": 8,
            "tap": 1.0,
            "transformer": false
        },
        "12": {
            "angmax": 1.0471975511965976,
            "angmin": -1.0471975511965976,
            "b_fr": 0.0,
            "b_to": 0.0,
            "br_r": 0.0,
            "br_status": 1,
            "br_x": 0.11001,
            "f_bus": 7,
            "g_fr": 0.0,
            "g_to": 0.0,
            "index": 12,
            "rate_a": 2.67,
            "rate_b": 0.0,
            "rate_c": 0.0,
            "shift": 0.0,
            "t_bus": 9,
            "tap": 1.0,
            "transformer": false
        },
        "13": {
            "angmax": 1.0471975511965976,
            "angmin": -1.0471975511965976,
            "b_fr": 0.0,
            "b_to": 0.0,
            "br_r": 0.03181,
            "br_status": 1,
            "br_x": 0.0845,
            "f_bus": 9,
            "g_fr": 0.0,
            "g_to": 0.0,
            "index": 13,
            "rate_a": 3.25,
            "rate_b": 0.0,
            "rate_c": 0.0,
            "shift": 0.0,
            "t_bus": 10,
            "tap": 1.0,
            "transformer": false
        },
        "14": {
            "angmax": 1.0471975511965976,
            "angmin": -1.0471975511965976,
            "b_fr": 0.0,
            "b_to": 0.0,
            "br_r": 0.12711,
            "br_status": 1,
            "br_x": 0.27038,
            "f_bus": 9,
            "g_fr": 0.0,
            "g_to": 0.0,
            "index": 14,
            "rate_a": 0.99,
            "rate_b": 0.0,
            "rate_c": 0.0,
            "shift": 0.0,
            "t_bus": 14,
            "tap": 1.0,
            "transformer": false
        },
        "15": {
            "angmax": 1.0471975511965976,
            "angmin": -1.0471975511965976,
            "b_fr": 0.0,
            "b_to": 0.0,
            "br_r": 0.08205,
            "br_status": 1,
            "br_x": 0.19207,
            "f_bus": 10,
            "g_fr": 0.0,
            "g_to": 0.0,
            "index": 15,
            "rate_a": 1.41,
            "rate_b": 0.0,
            "rate_c": 0.0,
            "shift": 0.0,
            "t_bus": 11,
            "tap": 1.0,
            "transformer": false
        },
        "16": {
            "angmax": 1.0471975511965976,
            "angmin": -1.0471975511965976,
            "b_fr": 0.0,
            "b_to": 0.0,
            "br_r": 0.22092,
            "br_status": 1,
            "br_x": 0.19988000000000003,
            "f_bus": 12,
            "g_fr": 0.0,
            "g_to": 0.0,
            "index": 16,
            "rate_a": 0.99,
            "rate_b": 0.0,
            "rate_c": 0.0,
            "shift": 0.0,
            "t_bus": 13,
            "tap": 1.0,
            "transformer": false
        },
        "17": {
            "angmax": 1.0471975511965976,
            "angmin": -1.0471975511965976,
            "b_fr": 0.0,
            "b_to": 0.0,
            "br_r": 0.17093,
            "br_status": 1,
            "br_x": 0.34802,
            "f_bus": 13,
            "g_fr": 0.0,
            "g_to": 0.0,
            "index": 17,
            "rate_a": 0.76,
            "rate_b": 0.0,
            "rate_c": 0.0,
            "shift": 0.0,
            "t_bus": 14,
            "tap": 1.0,
            "transformer": false
        },
        "18": {
            "angmax": 1.0471975511965976,
            "angmin": -1.0471975511965976,
            "b_fr": -0.0,
            "b_to": -0.0,
            "br_r": 0.0,
            "br_status": 1,
            "br_x": 0.20912,
            "f_bus": 4,
            "g_fr": 0.0,
            "g_to": 0.0,
            "index": 18,
            "rate_a": 1.41,
            "rate_b": 0.0,
            "rate_c": 0.0,
            "shift": 0.0,
            "t_bus": 7,
            "tap": 0.978,
            "transformer": true
        },
        "19": {
            "angmax": 1.0471975511965976,
            "angmin": -1.0471975511965976,
            "b_fr": -0.0,
            "b_to": -0.0,
            "br_r": 0.0,
            "br_status": 1,
            "br_x": 0.55618,
            "f_bus": 4,
            "g_fr": 0.0,
            "g_to": 0.0,
            "index": 19,
            "rate_a": 0.53,
            "rate_b": 0.0,
            "rate_c": 0.0,
            "shift": 0.0,
            "t_bus": 9,
            "tap": 0.969,
            "transformer": true
        },
        "2": {
            "angmax": 1.0471975511965976,
            "angmin": -1.0471975511965976,
            "b_fr": 0.0246,
            "b_to": 0.0246,
            "br_r": 0.05403000000000001,
            "br_status": 1,
            "br_x": 0.22304,
            "f_bus": 1,
            "g_fr": 0.0,
            "g_to": 0.0,
            "index": 2,
            "rate_a": 1.28,
            "rate_b": 0.0,
            "rate_c": 0.0,
            "shift": 0.0,
            "t_bus": 5,
            "tap": 1.0,
            "transformer": false
        },
        "20": {
            "angmax": 1.0471975511965976,
            "angmin": -1.0471975511965976,
            "b_fr": -0.0,
            "b_to": -0.0,
            "br_r": 0.0,
            "br_status": 1,
            "br_x": 0.25201999999999997,
            "f_bus": 5,
            "g_fr": 0.0,
            "g_to": 0.0,
            "index": 20,
            "rate_a": 1.17,
            "rate_b": 0.0,
            "rate_c": 0.0,
            "shift": 0.0,
            "t_bus": 6,
            "tap": 0.932,
            "transformer": true
        },
        "3": {
            "angmax": 1.0471975511965976,
            "angmin": -1.0471975511965976,
            "b_fr": 0.0219,
            "b_to": 0.0219,
            "br_r": 0.04699,
            "br_status": 1,
            "br_x": 0.19797,
            "f_bus": 2,
            "g_fr": 0.0,
            "g_to": 0.0,
            "index": 3,
            "rate_a": 1.45,
            "rate_b": 0.0,
            "rate_c": 0.0,
            "shift": 0.0,
            "t_bus": 3,
            "tap": 1.0,
            "transformer": false
        },
        "4": {
            "angmax": 1.0471975511965976,
            "angmin": -1.0471975511965976,
            "b_fr": 0.017000000000000005,
            "b_to": 0.017000000000000005,
            "br_r": 0.05811000000000001,
            "br_status": 1,
            "br_x": 0.17632,
            "f_bus": 2,
            "g_fr": 0.0,
            "g_to": 0.0,
            "index": 4,
            "rate_a": 1.58,
            "rate_b": 0.0,
            "rate_c": 0.0,
            "shift": 0.0,
            "t_bus": 4,
            "tap": 1.0,
            "transformer": false
        },
        "5": {
            "angmax": 1.0471975511965976,
            "angmin": -1.0471975511965976,
            "b_fr": 0.017300000000000006,
            "b_to": 0.017300000000000006,
            "br_r": 0.05695,
            "br_status": 1,
            "br_x": 0.17388,
            "f_bus": 2,
            "g_fr": 0.0,
            "g_to": 0.0,
            "index": 5,
            "rate_a": 1.61,
            "rate_b": 0.0,
            "rate_c": 0.0,
            "shift": 0.0,
            "t_bus": 5,
            "tap": 1.0,
            "transformer": false
        },
        "6": {
            "angmax": 1.0471975511965976,
            "angmin": -1.0471975511965976,
            "b_fr": 0.0064,
            "b_to": 0.0064,
            "br_r": 0.06701,
            "br_status": 1,
            "br_x": 0.17103,
            "f_bus": 3,
            "g_fr": 0.0,
            "g_to": 0.0,
            "index": 6,
            "rate_a": 1.6,
            "rate_b": 0.0,
            "rate_c": 0.0,
            "shift": 0.0,
            "t_bus": 4,
            "tap": 1.0,
            "transformer": false
        },
        "7": {
            "angmax": 1.0471975511965976,
            "angmin": -1.0471975511965976,
            "b_fr": 0.0,
            "b_to": 0.0,
            "br_r": 0.013350000000000002,
            "br_status": 1,
            "br_x": 0.04211,
            "f_bus": 4,
            "g_fr": 0.0,
            "g_to": 0.0,
            "index": 7,
            "rate_a": 6.64,
            "rate_b": 0.0,
            "rate_c": 0.0,
            "shift": 0.0,
            "t_bus": 5,
            "tap": 1.0,
            "transformer": false
        },
        "8": {
            "angmax": 1.0471975511965976,
            "angmin": -1.0471975511965976,
            "b_fr": 0.0,
            "b_to": 0.0,
            "br_r": 0.09498,
            "br_status": 1,
            "br_x": 0.1989,
            "f_bus": 6,
            "g_fr": 0.0,
            "g_to": 0.0,
            "index": 8,
            "rate_a": 1.34,
            "rate_b": 0.0,
            "rate_c": 0.0,
            "shift": 0.0,
            "t_bus": 11,
            "tap": 1.0,
            "transformer": false
        },
        "9": {
            "angmax": 1.0471975511965976,
            "angmin": -1.0471975511965976,
            "b_fr": 0.0,
            "b_to": 0.0,
            "br_r": 0.12291,
            "br_status": 1,
            "br_x": 0.25581,
            "f_bus": 6,
            "g_fr": 0.0,
            "g_to": 0.0,
            "index": 9,
            "rate_a": 1.04,
            "rate_b": 0.0,
            "rate_c": 0.0,
            "shift": 0.0,
            "t_bus": 12,
            "tap": 1.0,
            "transformer": false
        }
    },
    "bus": {
        "1": {
            "base_kv": 1.0,
            "bus_i": 1,
            "bus_type": 3,
            "index": 1,
            "va": 0.0,
            "vm": 1.0,
            "vmax": 1.00000001,
            "vmin": 0.99999999,
            "zone": 1
        },
        "10": {
            "base_kv": 1.0,
            "bus_i": 10,
            "bus_type": 1,
            "index": 10,
            "va": 0.0,
            "vm": 1.0,
            "vmax": 1.06,
            "vmin": 0.94,
            "zone": 1
        },
        "11": {
            "base_kv": 1.0,
            "bus_i": 11,
            "bus_type": 1,
            "index": 11,
            "va": 0.0,
            "vm": 1.0,
            "vmax": 1.06,
            "vmin": 0.94,
            "zone": 1
        },
        "12": {
            "base_kv": 1.0,
            "bus_i": 12,
            "bus_type": 1,
            "index": 12,
            "va": 0.0,
            "vm": 1.0,
            "vmax": 1.06,
            "vmin": 0.94,
            "zone": 1
        },
        "13": {
            "base_kv": 1.0,
            "bus_i": 13,
            "bus_type": 1,
            "index": 13,
            "va": 0.0,
            "vm": 1.0,
            "vmax": 1.06,
            "vmin": 0.94,
            "zone": 1
        },
        "14": {
            "base_kv": 1.0,
            "bus_i": 14,
            "bus_type": 1,
            "index": 14,
            "va": 0.0,
            "vm": 1.0,
            "vmax": 1.06,
            "vmin": 0.94,
            "zone": 1
        },
        "2": {
            "base_kv": 1.0,
            "bus_i": 2,
            "bus_type": 2,
            "index": 2,
            "va": 0.0,
            "vm": 1.0,
            "vmax": 1.06,
            "vmin": 0.94,
            "zone": 1
        },
        "3": {
            "base_kv": 1.0,
            "bus_i": 3,
            "bus_type": 2,
            "index": 3,
            "va": 0.0,
            "vm": 1.0,
            "vmax": 1.06,
            "vmin": 0.94,
            "zone": 1
        },
        "4": {
            "base_kv": 1.0,
            "bus_i": 4,
            "bus_type": 1,
            "index": 4,
            "va": 0.0,
            "vm": 1.0,
            "vmax": 1.06,
            "vmin": 0.94,
            "zone": 1
        },
        "5": {
            "base_kv": 1.0,
            "bus_i": 5,
            "bus_type": 1,
            "index": 5,
            "va": 0.0,
            "vm": 1.0,
            "vmax": 1.06,
            "vmin": 0.94,
            "zone": 1
        },
        "6": {
            "base_kv": 1.0,
            "bus_i": 6,
            "bus_type": 2,
            "index": 6,
            "va": 0.0,
            "vm": 1.0,
            "vmax": 1.06,
            "vmin": 0.94,
            "zone": 1
        },
        "7": {
            "base_kv": 1.0,
            "bus_i": 7,
            "bus_type": 1,
            "index": 7,
            "va": 0.0,
            "vm": 1.0,
            "vmax": 1.06,
            "vmin": 0.94,
            "zone": 1
        },
        "8": {
            "base_kv": 1.0,
            "bus_i": 8,
            "bus_type": 2,
            "index": 8,
            "va": 0.0,
            "vm": 1.0,
            "vmax": 1.06,
            "vmin": 0.94,
            "zone": 1
        },
        "9": {
            "base_kv": 1.0,
            "bus_i": 9,
            "bus_type": 1,
            "index": 9,
            "va": 0.0,
            "vm": 1.0,
            "vmax": 1.06,
            "vmin": 0.94,
            "zone": 1
        }
    },
    "correct_pm_network_data": true,
    "dcline": {},
    "gen": {
        "1": {
            "cost": [
                0.0,
                792.0951,
                0.0
            ],
            "gen_bus": 1,
            "gen_status": 1,
            "index": 1,
            "model": 2,
            "ncost": 3,
            "pg": 0.0,
            "pmax": 3.4000000001,
            "pmin": -1e-10,
            "qg": 0.0,
            "qmax": 0.10000000010000001,
            "qmin": -1e-10,
            "shutdown": 0.0,
            "startup": 0.0,
            "vg": 1.0
        },
        "2": {
            "cost": [
                0.0,
                2326.9494,
                0.0
            ],
            "gen_bus": 2,
            "gen_status": 1,
            "index": 2,
            "model": 2,
            "ncost": 3,
            "pg": 0.295,
            "pmax": 0.5900000001,
            "pmin": -1e-10,
            "qg": 0.0,
            "qmax": 0.3000000001,
            "qmin": -0.3000000001,
            "shutdown": 0.0,
            "startup": 0.0,
            "vg": 1.0
        },
        "3": {
            "cost": [
                0.0,
                0.0,
                0.0
            ],
            "gen_bus": 3,
            "gen_status": 1,
            "index": 3,
            "model": 2,
            "ncost": 3,
            "pg": 0.0,
            "pmax": 1e-10,
            "pmin": -1e-10,
            "qg": 0.0,
            "qmax": 0.40000000010000003,
            "qmin": -1e-10,
            "shutdown": 0.0,
            "startup": 0.0,
            "vg": 1.0
        },
        "4": {
            "cost": [
                0.0,
                0.0,
                0.0
            ],
            "gen_bus": 6,
            "gen_status": 1,
            "index": 4,
            "model": 2,
            "ncost": 3,
            "pg": 0.0,
            "pmax": 1e-10,
            "pmin": -1e-10,
            "qg": 0.0,
            "qmax": 0.2400000001,
            "qmin": -0.0600000001,
            "shutdown": 0.0,
            "startup": 0.0,
            "vg": 1.0
        },
        "5": {
            "cost": [
                0.0,
                0.0,
                0.0
            ],
            "gen_bus": 8,
            "gen_status": 1,
            "index": 5,
            "model": 2,
            "ncost": 3,
            "pg": 0.0,
            "pmax": 1e-10,
            "pmin": -1e-10,
            "qg": 0.0,
            "qmax": 0.2400000001,
            "qmin": -0.0600000001,
            "shutdown": 0.0,
            "startup": 0.0,
            "vg": 1.0
        }
    },
    "load": {
        "1": {
            "index": 1,
            "load_bus": 2,
            "pd": 0.217,
            "qd": 0.127,
            "status": 1
        },
        "10": {
            "index": 10,
            "load_bus": 13,
            "pd": 0.135,
            "qd": 0.057999999999999996,
            "status": 1
        },
        "11": {
            "index": 11,
            "load_bus": 14,
            "pd": 0.149,
            "qd": 0.05,
            "status": 1
        },
        "2": {
            "index": 2,
            "load_bus": 3,
            "pd": 0.9420000000000001,
            "qd": 0.19,
            "status": 1
        },
        "3": {
            "index": 3,
            "load_bus": 4,
            "pd": 0.478,
            "qd": -0.039,
            "status": 1
        },
        "4": {
            "index": 4,
            "load_bus": 5,
            "pd": 0.076,
            "qd": 0.016,
            "status": 1
        },
        "5": {
            "index": 5,
            "load_bus": 6,
            "pd": 0.11199999999999999,
            "qd": 0.075,
            "status": 1
        },
        "6": {
            "index": 6,
            "load_bus": 9,
            "pd": 0.295,
            "qd": 0.166,
            "status": 1
        },
        "7": {
            "index": 7,
            "load_bus": 10,
            "pd": 0.09,
            "qd": 0.057999999999999996,
            "status": 1
        },
        "8": {
            "index": 8,
            "load_bus": 11,
            "pd": 0.035,
            "qd": 0.018000000000000002,
            "status": 1
        },
        "9": {
            "index": 9,
            "load_bus": 12,
            "pd": 0.061,
            "qd": 0.016,
            "status": 1
        }
    },
    "name": "",
    "ne_branch": {},
    "per_unit": true,
    "pm_log_level": 0,
    "pm_mip_solver": "cbc",
    "pm_mip_time_limit": Infinity,
    "pm_model": "ACPPowerModel",
    "pm_nl_solver": "ipopt",
    "pm_nl_time_limit": Infinity,
    "pm_solver": "ipopt",
    "pm_time_limit": Infinity,
    "pm_tol": 1e-08,
    "shunt": {
        "1": {
            "bs": 0.19,
            "gs": 0.0,
            "index": 1,
            "shunt_bus": 9,
            "status": true
        }
    },
    "silence": true,
    "source_version": "2.0.0",
    "sourcetype": "matpower",
    "storage": {},
    "switch": {},
    "user_defined_params": {
        "gen_and_controllable_sgen": {
            "2": 2,
            "3": 3,
            "4": 4,
            "5": 5
        }
    }
}